FoamFile 
{
	version  2.0;
	format   ascii;
	class    dictionary;
	object   blockMeshDict;
}

//Lf = 2	Lw = 10	H = 5	R = 1

//cells (10 10 1)

//grading (1 1 1)

convertToMeters 1.0;

vertices
(
	(0.500000 0.000000 -0.050000)	//0
	(0.353553 0.353553 -0.050000)	//1
	(0.000000 0.500000 -0.050000)	//2
	(-0.353553 0.353553 -0.050000)	//3
	(-0.500000 0.000000 -0.050000)	//4
	(-0.353553 -0.353553 -0.050000)	//5
	(-0.000000 -0.500000 -0.050000)	//6
	(0.353553 -0.353553 -0.050000)	//7
	(1.000000 0.000000 -0.050000)	//8
	(0.707107 0.707107 -0.050000)	//9
	(0.000000 1.000000 -0.050000)	//10
	(-0.707107 0.707107 -0.050000)	//11
	(-1.000000 0.000000 -0.050000)	//12
	(-0.707107 -0.707107 -0.050000)	//13
	(-0.000000 -1.000000 -0.050000)	//14
	(0.707107 -0.707107 -0.050000)	//15
	(10.000000 0.000000 -0.050000)	//16
	(10.000000 0.707107 -0.050000)	//17
	(10.000000 5.000000 -0.050000)	//18
	(0.707107 5.000000 -0.050000)	//19
	(0.000000 5.000000 -0.050000)	//20
	(-0.707107 5.000000 -0.050000)	//21
	(-2.000000 5.000000 -0.050000)	//22
	(-2.000000 0.707107 -0.050000)	//23
	(-2.000000 0.000000 -0.050000)	//24
	(-2.000000 -0.707107 -0.050000)	//25
	(-2.000000 -5.000000 -0.050000)	//26
	(-0.707107 -5.000000 -0.050000)	//27
	(0.000000 -5.000000 -0.050000)	//28
	(0.707107 -5.000000 -0.050000)	//29
	(10.000000 -5.000000 -0.050000)	//30
	(10.000000 -0.707107 -0.050000)	//31
	(0.500000 0.000000 0.050000)	//32
	(0.353553 0.353553 0.050000)	//33
	(0.000000 0.500000 0.050000)	//34
	(-0.353553 0.353553 0.050000)	//35
	(-0.500000 0.000000 0.050000)	//36
	(-0.353553 -0.353553 0.050000)	//37
	(-0.000000 -0.500000 0.050000)	//38
	(0.353553 -0.353553 0.050000)	//39
	(1.000000 0.000000 0.050000)	//40
	(0.707107 0.707107 0.050000)	//41
	(0.000000 1.000000 0.050000)	//42
	(-0.707107 0.707107 0.050000)	//43
	(-1.000000 0.000000 0.050000)	//44
	(-0.707107 -0.707107 0.050000)	//45
	(-0.000000 -1.000000 0.050000)	//46
	(0.707107 -0.707107 0.050000)	//47
	(10.000000 0.000000 0.050000)	//48
	(10.000000 0.707107 0.050000)	//49
	(10.000000 5.000000 0.050000)	//50
	(0.707107 5.000000 0.050000)	//51
	(0.000000 5.000000 0.050000)	//52
	(-0.707107 5.000000 0.050000)	//53
	(-2.000000 5.000000 0.050000)	//54
	(-2.000000 0.707107 0.050000)	//55
	(-2.000000 0.000000 0.050000)	//56
	(-2.000000 -0.707107 0.050000)	//57
	(-2.000000 -5.000000 0.050000)	//58
	(-0.707107 -5.000000 0.050000)	//59
	(0.000000 -5.000000 0.050000)	//60
	(0.707107 -5.000000 0.050000)	//61
	(10.000000 -5.000000 0.050000)	//62
	(10.000000 -0.707107 0.050000)	//63
);

blocks
(
	hex (0 8 9 1 32 40 41 33)	(10 10 1)	simpleGrading (1 1 1)	//block 0
	hex (1 9 10 2 33 41 42 34)	(10 10 1)	simpleGrading (1 1 1)	//block 1
	hex (2 10 11 3 34 42 43 35)	(10 10 1)	simpleGrading (1 1 1)	//block 2
	hex (3 11 12 4 35 43 44 36)	(10 10 1)	simpleGrading (1 1 1)	//block 3
	hex (4 12 13 5 36 44 45 37)	(10 10 1)	simpleGrading (1 1 1)	//block 4
	hex (5 13 14 6 37 45 46 38)	(10 10 1)	simpleGrading (1 1 1)	//block 5
	hex (6 14 15 7 38 46 47 39)	(10 10 1)	simpleGrading (1 1 1)	//block 6
	hex (7 15 8 0 39 47 40 32)	(10 10 1)	simpleGrading (1 1 1)	//block 7
	hex (8 16 17 9 40 48 49 41)	(10 10 1)	simpleGrading (1 1 1)	//block 8
	hex (9 17 18 19 41 49 50 51)	(10 10 1)	simpleGrading (1 1 1)	//block 9
	hex (10 9 19 20 42 41 51 52)	(10 10 1)	simpleGrading (1 1 1)	//block 10
	hex (11 10 20 21 43 42 52 53)	(10 10 1)	simpleGrading (1 1 1)	//block 11
	hex (23 11 21 22 55 43 53 54)	(10 10 1)	simpleGrading (1 1 1)	//block 12
	hex (24 12 11 23 56 44 43 55)	(10 10 1)	simpleGrading (1 1 1)	//block 13
	hex (25 13 12 24 57 45 44 56)	(10 10 1)	simpleGrading (1 1 1)	//block 14
	hex (26 27 13 25 58 59 45 57)	(10 10 1)	simpleGrading (1 1 1)	//block 15
	hex (27 28 14 13 59 60 46 45)	(10 10 1)	simpleGrading (1 1 1)	//block 16
	hex (28 29 15 14 60 61 47 46)	(10 10 1)	simpleGrading (1 1 1)	//block 17
	hex (29 30 31 15 61 62 63 47)	(10 10 1)	simpleGrading (1 1 1)	//block 18
	hex (15 31 16 8 47 63 48 40)	(10 10 1)	simpleGrading (1 1 1)	//block 19
);

edges
(
	arc 0 1 (0.461940 0.191342 -0.050000)	//0
	arc 1 2 (0.191342 0.461940 -0.050000)	//1
	arc 2 3 (-0.191342 0.461940 -0.050000)	//2
	arc 3 4 (-0.461940 0.191342 -0.050000)	//3
	arc 4 5 (-0.461940 -0.191342 -0.050000)	//4
	arc 5 6 (-0.191342 -0.461940 -0.050000)	//5
	arc 6 7 (0.191342 -0.461940 -0.050000)	//6
	arc 7 0 (0.461940 -0.191342 -0.050000)	//7
	arc 8 9 (0.923880 0.382683 -0.050000)	//8
	arc 9 10 (0.382683 0.923880 -0.050000)	//9
	arc 10 11 (-0.382683 0.923880 -0.050000)	//10
	arc 11 12 (-0.923880 0.382683 -0.050000)	//11
	arc 12 13 (-0.923880 -0.382683 -0.050000)	//12
	arc 13 14 (-0.382683 -0.923880 -0.050000)	//13
	arc 14 15 (0.382683 -0.923880 -0.050000)	//14
	arc 15 8 (0.923880 -0.382683 -0.050000)	//15
	arc 32 33 (0.461940 0.191342 0.050000)	//16
	arc 33 34 (0.191342 0.461940 0.050000)	//17
	arc 34 35 (-0.191342 0.461940 0.050000)	//18
	arc 35 36 (-0.461940 0.191342 0.050000)	//19
	arc 36 37 (-0.461940 -0.191342 0.050000)	//20
	arc 37 38 (-0.191342 -0.461940 0.050000)	//21
	arc 38 39 (0.191342 -0.461940 0.050000)	//22
	arc 39 32 (0.461940 -0.191342 0.050000)	//23
	arc 40 41 (0.923880 0.382683 0.050000)	//24
	arc 41 42 (0.382683 0.923880 0.050000)	//25
	arc 42 43 (-0.382683 0.923880 0.050000)	//26
	arc 43 44 (-0.923880 0.382683 0.050000)	//27
	arc 44 45 (-0.923880 -0.382683 0.050000)	//28
	arc 45 46 (-0.382683 -0.923880 0.050000)	//29
	arc 46 47 (0.382683 -0.923880 0.050000)	//30
	arc 47 40 (0.923880 -0.382683 0.050000)	//31
);

boundary
(
	inlet
	{
	type patch;
	faces
	(
		(22 54 55 23)
		(23 55 56 24)
		(24 56 57 25)
		(25 57 58 26)
	);
	}

	outlet
	{
	type patch;
	faces
	(
		(18 50 49 17)
		(17 49 48 16)
		(16 48 63 31)
		(31 63 62 30)
	);
	}

	cylinder
	{
	type wall;
	faces
	(
		(0 32 33 1)
		(1 33 34 2)
		(2 34 35 3)
		(3 35 36 4)
		(4 36 37 5)
		(5 37 38 6)
		(6 38 39 7)
		(7 39 32 0)
	);
	}

	top
	{
	type symmetryPlane;
	faces
	(
		(22 54 53 21)
		(21 53 52 20)
		(20 52 51 19)
		(19 51 50 18)
	);
	}

	bottom
	{
	type symmetryPlane;
	faces
	(
		(26 58 59 27)
		(27 59 60 28)
		(28 60 61 29)
		(29 61 62 30)
	);
	}
);
mergePatchPairs
(
);