FoamFile 
{
	version  2.0;
	format   ascii;
	class    dictionary;
	object   blockMeshDict;
}

convertToMeters 1.0;

vertices
(
	(0.500000 0.000000 0.000000)	//0
	(0.353553 0.353553 0.000000)	//1
	(0.000000 0.500000 0.000000)	//2
	(-0.353553 0.353553 0.000000)	//3
	(-0.500000 0.000000 0.000000)	//4
	(-0.353553 -0.353553 0.000000)	//5
	(-0.000000 -0.500000 0.000000)	//6
	(0.353553 -0.353553 0.000000)	//7
	(1.000000 0.000000 0.000000)	//8
	(0.707107 0.707107 0.000000)	//9
	(0.000000 1.000000 0.000000)	//10
	(-0.707107 0.707107 0.000000)	//11
	(-1.000000 0.000000 0.000000)	//12
	(-0.707107 -0.707107 0.000000)	//13
	(-0.000000 -1.000000 0.000000)	//14
	(0.707107 -0.707107 0.000000)	//15
	(1.000000 0.000000 0.000000)	//16
	(1.000000 0.707107 0.000000)	//17
	(1.000000 1.000000 0.000000)	//18
	(0.707107 1.000000 0.000000)	//19
	(0.000000 1.000000 0.000000)	//20
	(-0.707107 1.000000 0.000000)	//21
	(-1.000000 1.000000 0.000000)	//22
	(-1.000000 0.707107 0.000000)	//23
	(-1.000000 0.000000 0.000000)	//24
	(-1.000000 -0.707107 0.000000)	//25
	(-1.000000 -1.000000 0.000000)	//26
	(-0.707107 -1.000000 0.000000)	//27
	(0.000000 -1.000000 0.000000)	//28
	(0.707107 -1.000000 0.000000)	//29
	(1.000000 -1.000000 0.000000)	//30
	(1.000000 -0.707107 0.000000)	//31
	(0.500000 0.000000 0.100000)	//32
	(0.353553 0.353553 0.100000)	//33
	(0.000000 0.500000 0.100000)	//34
	(-0.353553 0.353553 0.100000)	//35
	(-0.500000 0.000000 0.100000)	//36
	(-0.353553 -0.353553 0.100000)	//37
	(-0.000000 -0.500000 0.100000)	//38
	(0.353553 -0.353553 0.100000)	//39
	(1.000000 0.000000 0.100000)	//40
	(0.707107 0.707107 0.100000)	//41
	(0.000000 1.000000 0.100000)	//42
	(-0.707107 0.707107 0.100000)	//43
	(-1.000000 0.000000 0.100000)	//44
	(-0.707107 -0.707107 0.100000)	//45
	(-0.000000 -1.000000 0.100000)	//46
	(0.707107 -0.707107 0.100000)	//47
	(1.000000 0.000000 0.100000)	//48
	(1.000000 0.707107 0.100000)	//49
	(1.000000 1.000000 0.100000)	//50
	(0.707107 1.000000 0.100000)	//51
	(0.000000 1.000000 0.100000)	//52
	(-0.707107 1.000000 0.100000)	//53
	(-1.000000 1.000000 0.100000)	//54
	(-1.000000 0.707107 0.100000)	//55
	(-1.000000 0.000000 0.100000)	//56
	(-1.000000 -0.707107 0.100000)	//57
	(-1.000000 -1.000000 0.100000)	//58
	(-0.707107 -1.000000 0.100000)	//59
	(0.000000 -1.000000 0.100000)	//60
	(0.707107 -1.000000 0.100000)	//61
	(1.000000 -1.000000 0.100000)	//62
	(1.000000 -0.707107 0.100000)	//63
);

blocks
(
	hex (0 8 9 1 32 40 41 33)	(1 1 1)	simpleGrading (1 1 1)	//block 0
	hex (1 9 10 2 33 41 42 34)	(1 1 1)	simpleGrading (1 1 1)	//block 1
	hex (2 10 11 3 34 42 43 35)	(1 1 1)	simpleGrading (1 1 1)	//block 2
	hex (3 11 12 4 35 43 44 36)	(1 1 1)	simpleGrading (1 1 1)	//block 3
	hex (4 12 13 5 36 44 45 37)	(1 1 1)	simpleGrading (1 1 1)	//block 4
	hex (5 13 14 6 37 45 46 38)	(1 1 1)	simpleGrading (1 1 1)	//block 5
	hex (6 14 15 7 38 46 47 39)	(1 1 1)	simpleGrading (1 1 1)	//block 6
	hex (7 15 8 0 39 47 40 32)	(1 1 1)	simpleGrading (1 1 1)	//block 7
	hex (8 16 17 9 40 48 49 41)	(1 1 1)	simpleGrading (1 1 1)	//block 8
	hex (9 17 18 19 41 49 50 51)	(1 1 1)	simpleGrading (1 1 1)	//block 9
	hex (10 9 19 20 42 41 51 52)	(1 1 1)	simpleGrading (1 1 1)	//block 10
	hex (11 10 20 21 43 42 52 53)	(1 1 1)	simpleGrading (1 1 1)	//block 11
	hex (23 11 21 22 55 43 53 54)	(1 1 1)	simpleGrading (1 1 1)	//block 12
	hex (24 12 11 23 56 44 43 55)	(1 1 1)	simpleGrading (1 1 1)	//block 13
	hex (25 13 12 24 57 45 44 58)	(1 1 1)	simpleGrading (1 1 1)	//block 14
	hex (26 27 13 25 58 59 45 57)	(1 1 1)	simpleGrading (1 1 1)	//block 15
	hex (27 28 14 13 59 60 46 45)	(1 1 1)	simpleGrading (1 1 1)	//block 16
	hex (28 29 15 14 60 61 47 46)	(1 1 1)	simpleGrading (1 1 1)	//block 17
	hex (29 30 31 15 61 62 63 47)	(1 1 1)	simpleGrading (1 1 1)	//block 18
	hex (15 31 16 8 47 63 48 40)	(1 1 1)	simpleGrading (1 1 1)	//block 19
);

edges
(
	arc 0 1 (0.461940 0.191342 0)
	arc 1 2 (0.191342 0.461940 0)
	arc 2 3 (-0.191342 0.461940 0)
	arc 3 4 (-0.461940 0.191342 0)
	arc 4 5 (-0.461940 -0.191342 0)
	arc 5 6 (-0.191342 -0.461940 0)
	arc 6 7 (0.191342 -0.461940 0)
	arc 7 0 (0.461940 -0.191342 0)
	arc 8 9 (0.191342 0.461940 0)
	arc 9 10 (-0.191342 0.461940 0)
	arc 10 11 (-0.461940 0.191342 0)
	arc 11 12 (-0.461940 -0.191342 0)
	arc 12 13 (-0.191342 -0.461940 0)
	arc 13 14 (0.191342 -0.461940 0)
	arc 14 15 (0.461940 -0.191342 0)
	arc 15 8 (4.619398e-01 -1.913417e-01 0)
	arc 32 33 (0.461940 0.191342 0.1)
	arc 33 34 (0.191342 0.461940 0.1)
	arc 34 35 (-0.191342 0.461940 0.1)
	arc 35 36 (-0.461940 0.191342 0.1)
	arc 36 37 (-0.461940 -0.191342 0.1)
	arc 37 38 (-0.191342 -0.461940 0.1)
	arc 38 39 (0.191342 -0.461940 0.1)
	arc 39 32 (0.461940 -0.191342 0.1)
	arc 40 41 (0.191342 0.461940 0.1)
	arc 41 42 (-0.191342 0.461940 0.1)
	arc 42 43 (-0.461940 0.191342 0.1)
	arc 43 44 (-0.461940 -0.191342 0.1)
	arc 44 45 (-0.191342 -0.461940 0.1)
	arc 45 46 (0.191342 -0.461940 0.1)
	arc 46 47 (0.461940 -0.191342 0.1)
	arc 47 40 (0.461940 -0.191342 0.1)
);

boundary
(
	inlet
	{
	type patch;
	faces
	(
		(22 23 55 54)
		(23 24 56 55)
		(24 25 57 56)
		(25 26 58 57)
	);
	}

	outlet
	{
	type patch;
	faces
	(
		(18 17 49 50)
		(17 16 48 49)
		(16 31 63 48)
		(31 30 62 63)
	);
	}

	cylinder
	{
	type wall;
	faces
	(
		(1 0 32 33)
		(2 1 33 34)
		(3 2 34 35)
		(4 3 35 36)
		(5 4 36 37)
		(6 5 37 38)
		(7 6 38 39)
		(0 7 39 32)
	);
	}

	top
	{
	type symmetryPlane;
	faces
	(
		(22 21 53 54)
		(21 20 52 53)
		(20 19 51 52)
		(19 18 50 51)
	);
	}

	bottom
	{
	type symmetryPlane;
	faces
	(
		(26 58 59 27)
		(27 59 60 28)
		(28 60 61 29)
		(29 61 62 30)
	);
	}
);